<?xml version="1.0" encoding="UTF-8"?>

<!-- generated on 2023-05-18 03:47:59 by Eclipse SUMO polyconvert Version v1_17_0+0293-f7f0a5c6e6a
<configuration xmlns:xsi="http://www.w3.org/2001/XMLSchema-instance" xsi:noNamespaceSchemaLocation="http://sumo.dlr.de/xsd/polyconvertConfiguration.xsd">

    <input>
        <net-file value="map.net.xml"/>
        <osm-files value="map.osm"/>
    </input>

    <output>
        <output-file value="map.poly.xml"/>
    </output>

</configuration>
-->

<additional xmlns:xsi="http://www.w3.org/2001/XMLSchema-instance" xsi:noNamespaceSchemaLocation="http://sumo.dlr.de/xsd/additional_file.xsd">
    <location netOffset="-284730.74,-5523940.56" convBoundary="-0.00,-739.83,5700.93,2929.52" origBoundary="24.006259,49.823997,24.084855,49.855961" projParameter="+proj=utm +zone=35 +ellps=WGS84 +datum=WGS84 +units=m +no_defs"/>

    <poly id="1000528176" type="landuse" color="194,194,130" fill="1" layer="-3.00" shape="1960.586355,1812.436169 1957.150024,1804.745734 1954.321813,1789.327101 1955.541489,1780.862154 1958.589731,1773.304479 1965.133804,1764.216679 1968.459099,1759.653973 1969.820871,1753.866480 1969.867761,1745.236469 1963.998141,1735.549400 1957.664889,1723.609550 1953.405637,1713.502434 1958.203075,1710.117176 1964.130246,1720.347483 1970.350046,1730.332408 1974.929016,1738.879369 1976.706028,1743.573943 1978.176392,1752.522375 1978.308250,1758.395429 1975.609635,1763.512224 1970.044132,1772.405382 1966.609539,1782.204975 1964.765882,1793.455647 1966.369736,1801.775335 1974.069028,1813.126686 1982.856187,1825.770924 1994.009258,1843.620812 1996.502969,1848.598728 1995.552244,1854.948854 1993.109341,1859.432061 1984.787292,1854.529158 1987.184743,1851.261255 1985.372361,1844.218997 1977.356617,1834.872995 1968.787933,1824.290868 1965.046700,1818.716665 1960.586355,1812.436169"/>
    <poly id="1001069404" type="amenity" color="237,199,199" fill="1" layer="-1.00" shape="1795.824853,1365.692120 1795.784754,1364.680596 1795.423375,1363.737474 1794.773875,1362.972770 1793.910343,1362.439213 1792.929316,1362.210909 1791.925565,1362.317498 1790.998849,1362.732762 1790.242179,1363.441878 1789.760738,1364.373880 1789.614377,1365.403929 1789.820694,1366.431129 1790.360466,1367.333780 1791.157399,1368.003574 1792.136525,1368.365551 1793.188694,1368.390639 1794.148570,1368.085393 1794.959966,1367.485438 1795.539264,1366.660890 1795.824853,1365.692120"/>
    <poly id="1001069405" type="amenity" color="237,199,199" fill="1" layer="-1.00" shape="1792.781849,1364.666040 1792.545508,1364.697676 1792.341007,1364.805981 1792.182280,1364.979270 1792.089573,1365.183341 1792.070072,1365.417909 1792.136834,1365.649058 1792.266971,1365.844295 1792.444783,1365.970844 1792.663524,1366.040104 1792.886368,1366.031270 1793.092192,1365.956312 1793.267058,1365.826916 1793.396590,1365.643651 1793.452914,1365.429889 1793.436912,1365.207861 1793.356655,1364.999513 1793.213022,1364.827077 1793.014085,1364.712499 1792.781849,1364.666040"/>
    <poly id="1016996253" type="tourism" color="207,245,201" fill="0" layer="-2.00" shape="2429.795309,1709.969511 2453.272115,1716.890348 2471.503990,1735.919775 2491.536568,1754.610902 2481.652444,1772.291103 2482.965887,1793.503284"/>
    <poly id="1017168323" type="building" color="255,230,230" fill="1" layer="-1.00" shape="1720.906224,524.605280 1723.385605,520.666064 1719.797124,518.425844 1717.324933,522.364777 1720.906224,524.605280"/>
    <poly id="1017168325" type="building" color="255,230,230" fill="1" layer="-1.00" shape="1718.422741,528.622593 1720.906224,524.605280 1717.324933,522.364777 1714.814897,526.438809 1718.422741,528.622593"/>
    <poly id="1025474951" type="forest" color="140,196,107" fill="1" layer="-4.00" shape="1981.101701,1855.810733 1974.357808,1853.673137 1961.762937,1850.130778 1954.467196,1848.783253 1944.057022,1846.779813 1935.192830,1849.635972 1926.604546,1847.282052 1924.868670,1845.079679 1922.439728,1844.463405 1914.759613,1838.321659 1915.170792,1834.163849 1919.752296,1830.419711 1924.805639,1828.772172 1930.803225,1826.608502 1932.072705,1822.127225 1931.954671,1819.148229 1932.257448,1814.616190 1930.846874,1810.630762 1927.093382,1808.563997 1926.261062,1804.455460 1928.056252,1798.706445 1931.341290,1793.855846 1931.889309,1788.245313 1932.768665,1781.185481 1935.640830,1778.088009 1939.673785,1775.033613 1945.249377,1772.029434 1949.016044,1767.159767 1955.424931,1760.838319 1957.452032,1758.397794 1959.878181,1757.488962 1963.117599,1756.392050 1964.768002,1754.255911 1965.734043,1750.655049 1966.632299,1746.433418 1965.328859,1743.879908 1962.242971,1742.855447 1957.323952,1740.445174 1954.367957,1736.520965 1951.249985,1726.145974 1949.710151,1721.442011 1950.161919,1719.397888 1950.670168,1717.507391 1950.858606,1714.994978 1952.147428,1713.363018 1953.405637,1713.502434 1957.664889,1723.609550 1963.998141,1735.549400 1969.867761,1745.236469 1969.820871,1753.866480 1968.459099,1759.653973 1965.133804,1764.216679 1958.589731,1773.304479 1955.541489,1780.862154 1954.321813,1789.327101 1957.150024,1804.745734 1960.586355,1812.436169 1965.046700,1818.716665 1968.787933,1824.290868 1977.356617,1834.872995 1985.372361,1844.218997 1987.184743,1851.261255 1984.787292,1854.529158 1981.101701,1855.810733"/>
    <poly id="1025478389" type="school" color="237,199,199" fill="1" layer="-2.00" shape="2006.917061,1681.479251 2039.779601,1697.957322 2059.281964,1711.758261 2071.413549,1725.049525 2065.500735,1755.175986 2064.715213,1759.337466 2049.517156,1838.772698 2032.166019,1838.379933 2024.575509,1871.033327 2008.787333,1871.747717 2000.698597,1868.917440 1985.609261,1863.648007 1982.973934,1862.728155 1960.737546,1854.958636 1945.047976,1848.532982 1944.706356,1849.359233 1924.868670,1845.079679 1948.338828,1769.691545 1955.535209,1753.808963 1962.703492,1756.842646 1966.981584,1746.709042 1965.232941,1744.729824 1956.460963,1741.013752 1953.405637,1713.502434 1953.044816,1709.664675 1957.024463,1707.625521 1962.984770,1704.517060 1973.517534,1699.067653 1988.320440,1691.278172 2006.917061,1681.479251"/>
    <poly id="1025897607" type="landuse" color="194,194,130" fill="1" layer="-3.00" shape="1052.577615,1200.887964 1054.218524,1201.412754 1053.664287,1203.227247 1044.346435,1197.051564 1019.456180,1178.246867 992.117686,1158.537695 965.473765,1139.279737 940.648772,1120.862435 939.585592,1119.657825 939.601409,1118.788804 940.189904,1118.197589 994.074175,1156.678534 1052.577615,1200.887964"/>
    <poly id="1025897608" type="landuse" color="194,194,130" fill="1" layer="-3.00" shape="1057.808243,1197.351074 1059.951025,1198.546161 1063.129546,1199.533054 1063.994606,1200.645367 1064.383847,1203.190524 1063.638605,1205.090546 1061.546296,1207.155482 1059.782493,1207.704368 1057.404483,1206.206907 1053.664287,1203.227247 1054.218524,1201.412754 1057.808243,1197.351074"/>
    <poly id="1025897609" type="landuse" color="194,194,130" fill="1" layer="-3.00" shape="1083.987000,1148.626292 1084.715651,1147.394926 1085.285012,1147.227550 1086.018601,1147.387639 1094.229399,1153.607423 1094.373712,1154.158344 1093.924772,1155.000056 1078.059243,1176.093885 1077.099460,1176.944782 1075.879900,1177.238218 1074.592334,1177.089031 1073.903880,1176.615418 1073.430878,1175.765841 1073.238471,1174.548840 1073.441774,1173.505365 1079.197496,1159.816391 1083.987000,1148.626292"/>
    <poly id="1025897610" type="landuse" color="194,194,130" fill="1" layer="-3.00" shape="1075.073616,1191.543065 1075.897117,1191.610511 1076.979262,1193.293119 1086.558423,1215.635020 1089.593206,1222.784310 1089.732636,1223.936619 1089.207492,1225.215558 1088.134908,1226.126606 1086.662196,1226.752972 1084.827298,1226.781416 1082.969412,1226.231848 1069.187964,1215.902835 1068.456513,1214.529144 1068.447590,1213.037648 1068.915095,1207.775309 1069.532211,1199.033457 1070.065312,1197.954598 1072.401410,1194.777782 1075.073616,1191.543065"/>
    <poly id="1025897611" type="landuse" color="194,194,130" fill="1" layer="-3.00" shape="1168.722636,1067.213211 1170.361717,1067.148050 1173.336465,1067.898182 1176.212948,1069.798941 1186.807335,1081.279178 1187.056668,1082.660916 1186.977843,1084.300629 1186.351572,1085.572442 1185.176530,1086.443008 1183.886823,1086.783739 1153.945567,1089.076228 1153.254783,1088.725163 1152.723187,1087.488247 1153.332215,1085.782920 1165.242645,1069.511397 1167.290913,1067.604124 1168.722636,1067.213211"/>
    <poly id="1025897612" type="landuse" color="194,194,130" fill="1" layer="-3.00" shape="1110.950422,1112.740457 1110.863854,1111.830976 1111.499386,1110.792582 1131.566989,1093.239150 1132.651542,1092.628233 1133.999081,1092.474455 1135.655392,1092.842793 1136.550326,1093.619934 1137.190083,1095.041813 1137.113041,1096.725989 1136.491203,1098.108965 1129.875106,1106.644000 1125.940708,1111.999647 1120.574561,1119.193543 1120.003428,1119.316452 1119.006409,1118.688106 1110.950422,1112.740457"/>
    <poly id="1025897613" type="landuse" color="194,194,130" fill="1" layer="-3.00" shape="1124.010792,1142.414369 1124.729677,1142.385784 1127.322565,1144.397991 1132.850956,1148.709382 1133.023461,1149.426181 1132.402633,1150.653253 1127.028566,1157.647062 1126.457762,1157.959222 1125.879120,1157.893165 1117.671904,1151.762259 1117.546508,1151.143786 1117.743166,1150.657238 1124.010792,1142.414369"/>
    <poly id="1025897614" type="landuse" color="194,194,130" fill="1" layer="-3.00" shape="1124.086898,1126.401795 1126.331934,1123.106162 1125.689263,1122.697521 1135.137568,1110.242311 1142.062378,1100.960217 1144.002850,1097.609904 1146.223369,1094.059192 1147.839461,1093.416012 1180.911084,1090.898848 1185.531028,1090.470266 1186.841943,1090.663085 1187.736547,1091.250983 1188.347893,1092.139603 1188.673891,1093.095232 1188.771934,1094.293720 1188.380808,1095.322388 1182.561628,1103.257881 1158.230712,1136.188562 1154.098677,1141.462980 1152.167026,1140.326261 1150.815198,1140.190743 1148.753086,1140.662392 1146.681873,1141.991660 1142.947435,1139.156443 1124.086898,1126.401795"/>
    <poly id="1025897615" type="forest" color="140,196,107" fill="1" layer="-4.00" shape="974.064787,897.725471 974.197374,899.790974 975.391428,900.845654 976.971598,901.651173 980.057826,903.933155 982.645899,906.001161 985.287504,907.966839 987.995239,910.508815 989.120265,912.000439 991.654027,913.970411 994.022448,915.223302 996.693912,916.853801 998.204293,917.172241 1001.063493,916.101034 1003.426668,913.602244 1004.362397,911.783704 1006.824012,909.225333 1008.617010,908.140881 1009.641893,906.029331 1009.408343,903.778580 1008.308439,901.651359 1003.595384,898.476625 1001.297423,896.641998 999.173782,894.121311 997.109548,890.741004 995.924467,889.006837 993.977329,887.302987 992.750880,885.614999 991.141962,884.086960 989.210300,882.772159 987.515088,882.694872 985.649411,884.305484 984.665898,886.370860 983.263973,888.597615 981.023350,890.557143 978.820228,892.192316 976.443786,894.357648 975.343379,895.837617 974.064787,897.725471"/>
    <poly id="1025897616" type="forest" color="140,196,107" fill="1" layer="-4.00" shape="937.878753,916.644539 938.563485,918.109143 939.949889,917.664308 941.283543,916.074850 944.087000,913.603044 947.368143,912.459352 949.855617,909.465729 953.061339,907.512316 955.178950,906.080932 957.340040,903.389764 959.293081,901.441668 960.592898,900.087360 963.597677,896.883896 966.382137,893.934131 968.001949,891.030708 970.361141,888.431863 974.328957,885.000823 978.076782,882.012734 980.547040,878.585617 981.298061,876.830087 978.272552,873.721830 975.882881,871.935394 975.373247,869.985092 974.041830,868.011820 970.236008,864.656283 968.046189,863.006631 967.446283,862.407040 965.671357,859.059765 963.665262,856.055684 960.849974,854.430922 959.201096,854.251601 956.897967,856.992951 955.620353,860.172224 956.641518,863.939152 956.206478,867.663826 953.999682,871.559200 949.818739,874.520008 946.084976,876.594633 942.735452,878.553771 940.779184,882.773178 941.926891,886.100873 944.141480,888.372990 946.273666,890.926716 947.110458,894.945911 946.250942,897.774553 944.383828,901.700948 943.008011,906.030856 942.942181,909.262111 940.915152,911.703019 938.594027,915.257821 937.878753,916.644539"/>
    <poly id="1025897617" type="forest" color="140,196,107" fill="1" layer="-4.00" shape="900.166996,940.823815 902.696467,942.504453 906.015301,942.127426 909.187476,940.598382 913.339255,938.173094 916.811278,935.674663 920.136643,934.195196 922.130248,933.447859 924.388755,929.405679 926.091150,927.311680 929.753754,924.716608 930.496788,922.760990 930.306354,916.890224 931.165199,912.959416 930.697253,909.704870 931.584411,906.485461 932.558610,904.186647 932.613706,900.866753 933.593337,896.352211 933.065006,892.665872 933.546700,889.028404 931.561830,886.557885 930.592726,886.451720 928.638699,887.108411 926.593304,890.173516 923.084193,893.007410 920.369879,895.186215 917.457144,898.530774 915.821877,901.045166 913.676289,904.125398 911.990701,906.641794 907.598114,910.434921 905.828805,913.199583 903.824026,917.465470 902.560506,919.731274 901.185501,922.814240 899.870555,926.139748 899.802982,929.326542 899.064608,932.484369 898.212314,935.312734 898.595445,937.702262 899.068495,939.999146 900.166996,940.823815"/>
    <poly id="1025897618" type="forest" color="140,196,107" fill="1" layer="-4.00" shape="923.175169,956.084660 925.608955,957.713450 927.190227,957.461253 927.773654,956.380378 927.413875,953.310792 926.655491,948.909949 926.560715,945.262022 926.818427,941.967464 925.975202,940.319905 923.404038,939.943503 921.311223,941.997375 919.164215,943.775075 916.361118,944.988826 914.134590,946.034899 913.791281,948.264076 915.619860,950.607209 918.960918,952.055155 921.504091,954.080386 923.175169,956.084660"/>
    <poly id="1025897619" type="forest" color="140,196,107" fill="1" layer="-4.00" shape="941.575647,975.525786 943.846948,976.871585 946.897003,975.892951 948.556256,973.800675 952.004952,968.364023 954.523032,965.959244 957.305566,963.143146 957.284464,960.260481 955.825099,957.423914 951.998091,953.534841 948.399685,950.505065 946.432432,947.209982 943.979967,943.845143 943.282308,940.789003 945.101949,938.022351 947.355366,936.385160 950.253360,936.470237 953.426647,936.054498 958.202476,932.301826 960.277273,931.061412 963.237437,930.175431 965.945997,927.852145 968.429935,924.769606 971.429604,922.523805 974.194532,924.150574 975.809194,925.823112 978.037021,928.428710 980.051723,930.564060 981.323720,933.396954 982.982303,933.820825 987.185418,932.685007 988.569405,931.093559 989.669365,929.602478 991.197487,926.747242 991.389200,924.145575 988.995277,919.898864 985.594519,916.950265 983.808418,915.674209 979.332601,912.490056 975.546826,909.456583 973.143901,907.336681 969.105822,905.382040 965.663968,906.287183 963.467589,909.358281 961.375842,912.525415 955.964149,914.956266 952.315239,917.895903 947.982591,920.662354 944.590403,922.634324 939.635506,926.772664 938.375955,929.138499 934.902149,931.592453 934.017754,936.147738 934.806656,941.315560 933.671737,949.165117 934.144974,956.171351 933.548593,960.726308 934.481612,964.630340 936.609242,967.251042 938.276988,970.257443 939.926484,972.986240 941.575647,975.525786"/>
    <poly id="1025897620" type="forest" color="140,196,107" fill="1" layer="-4.00" shape="901.118979,956.238849 905.834261,955.850772 909.290455,957.839658 912.625759,959.143097 917.149475,961.178565 921.237526,964.389232 924.874427,968.386049 927.778040,970.964732 930.238468,974.529645 931.012662,979.508787 930.749084,985.007958 930.070313,989.844526 928.056595,992.618909 925.176653,995.338702 921.769370,997.110893 918.210014,999.946796 915.333620,1002.755519 911.799154,1003.864785 909.205342,1001.652310 907.650069,999.120170 907.021412,997.798071 907.035450,993.266287 907.026924,988.167606 906.142996,985.497413 905.046047,982.178838 904.477437,977.480979 902.473549,970.914199 902.192500,966.204896 901.624662,961.707405 900.298649,957.518422 901.118979,956.238849"/>
    <poly id="1025897621" type="forest" color="140,196,107" fill="1" layer="-4.00" shape="846.411518,1002.225928 848.399697,1003.694292 850.566049,1004.754767 852.048789,1006.911251 851.849293,1009.134708 850.848264,1010.577349 848.661369,1011.532809 844.638724,1012.316426 841.103498,1013.225371 837.141249,1014.440786 833.940681,1013.989289 833.656734,1011.740547 836.103511,1008.993415 839.902953,1007.305753 841.249831,1006.049738 842.872744,1003.045947 844.958995,1002.094492 846.411518,1002.225928"/>
    <poly id="1025897622" type="forest" color="140,196,107" fill="1" layer="-4.00" shape="833.133682,996.252766 836.223542,996.274474 837.804465,995.832999 839.691617,993.497814 841.342878,992.652744 844.230020,993.550920 846.707709,993.931004 850.740421,992.133864 852.379528,992.068608 858.215969,994.341229 859.047028,994.597608 861.957510,996.263057 864.119225,998.292314 865.381306,999.789591 865.805039,1001.932571 865.333462,1004.556522 864.918615,1006.254156 864.371936,1008.257635 865.147924,1009.662931 866.330583,1010.250444 870.276590,1009.892958 873.063834,1009.548203 878.247460,1008.807458 881.841985,1009.388030 885.830470,1010.097655 889.943266,1010.312472 892.461649,1011.715214 896.129058,1012.860689 898.176834,1014.560497 900.816986,1016.670922 902.201592,1016.181614 904.888516,1014.582814 905.249069,1012.787146 904.689093,1010.838852 903.960118,1008.262691 903.473133,1004.530175 902.632777,1000.422061 901.068533,994.951106 900.525471,991.076090 900.411208,986.939075 899.376744,982.838688 898.679062,979.782552 897.646037,976.984696 897.120555,972.285121 897.071330,969.782103 896.554811,966.574025 895.315841,963.305637 894.929497,959.569116 894.641593,957.220330 893.196569,953.659547 892.109573,953.123886 889.660630,953.466296 886.791075,955.361836 885.106285,956.631289 884.740314,958.471707 885.372630,959.704593 886.934776,961.323529 888.310779,963.150274 889.183105,965.709594 889.511275,969.069901 888.694607,971.707585 886.531368,974.343204 884.229756,974.768819 881.753832,974.433180 878.258161,973.804138 875.950125,972.983089 874.509423,971.882584 873.502601,969.562417 872.882552,967.371586 873.004089,965.540897 872.969575,964.673879 872.186515,964.538052 871.366630,965.105086 870.219920,965.963461 868.488796,967.334963 866.216830,968.505332 864.248474,970.609940 863.487336,972.833489 862.938229,975.861323 860.607536,976.822501 857.664988,976.883979 855.496097,977.025991 852.530220,977.767529 849.883878,979.119809 847.684371,980.843963 845.108920,981.625627 842.705575,983.112968 838.695871,985.488126 837.252324,986.848190 836.680426,988.218082 833.813768,989.100413 832.727140,990.924996 832.448225,992.238691 832.345053,993.445189 832.412324,995.134763 833.133682,996.252766"/>
    <poly id="1025897623" type="forest" color="140,196,107" fill="1" layer="-4.00" shape="861.419505,909.857154 861.917352,912.776510 863.974909,914.720849 866.494669,916.156927 869.433617,918.355646 871.838351,920.519965 875.686335,922.582301 878.967038,925.045751 880.820410,926.564028 883.153249,929.454874 884.987925,930.684432 887.069903,930.891023 890.454212,928.540799 891.338573,923.985505 891.240125,920.426789 893.315241,917.928280 896.333684,913.622041 899.170632,908.554835 900.942040,904.576565 904.282574,901.125904 907.194967,899.039406 911.774483,895.238840 914.303758,890.762817 918.735962,886.879055 920.974354,884.863923 923.491693,881.535102 927.317472,878.154211 931.401402,875.108180 934.931002,870.436495 937.566257,867.537185 940.378033,865.454711 942.900813,862.081152 946.231357,856.025744 947.291857,852.276180 949.379313,848.819749 947.589332,845.094547 945.037819,844.127290 941.932837,843.727586 939.375230,843.873896 935.388847,843.219807 931.230581,842.951090 928.025606,843.657562 921.850355,846.263562 920.962423,847.111625 917.808432,850.365583 915.703747,851.941199 912.355325,852.842655 905.113981,855.257307 902.298230,857.239759 899.691080,859.759438 897.322173,862.113770 893.683984,866.589406 887.921770,869.802468 884.479243,871.776479 882.069314,874.366250 878.825542,875.363762 874.914619,877.690421 871.608254,879.647887 869.664635,881.651307 868.984220,884.094304 866.910776,888.986401 866.823750,891.684108 867.052722,894.903632 866.430829,898.635756 864.514545,901.506482 862.685194,904.028619 861.381770,907.643142 861.419505,909.857154"/>
    <poly id="1025897624" type="forest" color="140,196,107" fill="1" layer="-4.00" shape="811.496420,897.883707 810.579783,900.180255 812.005468,900.902813 813.947219,901.204026 815.757136,901.811087 817.294534,902.807529 819.558038,903.775061 822.243933,904.681242 825.200479,906.055377 827.240792,907.566194 829.813437,909.245081 831.621816,910.898733 832.486338,914.527148 833.126194,915.948994 834.338655,918.550431 834.672927,920.797170 836.433524,922.697657 838.736611,923.574553 841.936454,923.825687 844.682711,923.716350 847.898126,922.007417 850.879841,920.396856 853.397476,919.428233 854.315121,916.975788 853.470419,914.025709 851.461412,912.034907 850.047326,909.252228 849.099426,906.061327 848.129314,904.663761 845.637508,901.578858 842.634290,900.117504 840.041856,899.207592 837.389361,898.055141 834.310588,895.962205 833.134855,894.283363 832.036649,892.200639 830.986317,888.969285 828.863032,886.459779 827.476941,885.646574 824.990922,886.324485 822.637860,887.809829 820.414995,890.214050 819.061581,892.572520 816.631333,894.651003 814.412325,895.886083 811.496420,897.883707"/>
    <poly id="1025897625" type="forest" color="140,196,107" fill="1" layer="-4.00" shape="804.289326,904.772702 807.024086,904.374340 810.454344,905.529206 812.846919,906.302330 814.662589,907.053894 818.301007,908.734872 820.744585,910.608159 822.369038,912.525196 824.493072,913.787747 828.245095,917.056261 829.329190,922.401586 829.784621,927.872141 830.955038,929.417594 835.570816,930.146743 838.857033,930.216303 841.843736,929.997193 843.964851,928.654689 847.055508,927.429451 848.718741,926.884505 851.419649,926.721311 855.396019,926.039745 859.567171,926.452618 863.445657,925.663623 868.309846,926.483110 871.197698,929.930785 873.741905,933.247410 876.634499,935.548176 878.940013,937.571716 881.309898,940.127089 882.741542,942.085216 884.327476,944.482532 884.841791,947.635031 883.809443,949.557641 882.020464,950.742176 879.368350,951.949937 875.081111,954.770310 872.772318,957.367195 871.089302,958.681115 864.675533,961.441418 859.626265,964.292140 856.298068,966.784884 851.683694,969.707366 847.168617,970.421518 843.915932,969.927556 842.440340,965.599808 841.573381,960.824765 839.529865,957.966950 839.884964,954.768705 842.201709,952.371886 842.400872,949.959177 840.437535,946.764172 837.281469,943.995185 833.279651,942.952126 827.008181,942.956897 823.741829,939.769246 820.337001,936.720708 813.173399,936.382487 808.686290,937.618818 802.573031,940.511961 798.365967,941.547884 795.240496,943.164201 793.686608,946.454722 793.385736,949.929143 794.360970,952.540020 795.765781,955.089257 800.082852,957.901053 805.155495,957.988520 812.822629,957.772283 817.414353,956.631988 819.433741,957.798503 823.148359,961.213235 824.430615,964.301753 823.946039,969.130609 823.323508,971.760575 824.723874,974.198663 827.235784,976.703825 830.714547,977.812237 834.051394,978.069042 834.742582,980.780300 833.695211,982.324989 830.445005,984.424982 828.024092,986.736889 825.607093,991.497955 824.390408,993.672850 821.873458,993.572670 818.122605,991.417440 815.951440,987.885589 813.329587,985.151011 809.524417,982.897751 807.874549,981.427061 807.215965,978.269178 807.134386,974.954719 804.808297,973.499824 798.751862,973.117537 795.698284,974.007331 793.338492,974.056771 791.230604,972.114463 788.313642,969.202383 784.329094,968.592869 778.674833,969.630777 775.826480,968.441625 772.975325,965.916596 769.977036,962.228436 769.042375,959.371016 766.641893,956.048713 763.884881,954.622130 762.023614,956.522114 762.941707,960.048189 765.390049,962.221859 765.539982,964.720869 764.103973,966.269918 762.226878,967.591604 759.973083,969.217759 757.529907,969.704732 754.755969,968.033897 754.221023,965.450023 754.921928,962.438394 756.043808,960.233859 756.820908,956.784999 758.095870,954.808166 759.522142,953.014571 760.978268,950.885791 762.876916,948.839585 766.018168,946.354227 768.155832,944.343037 768.832987,942.000352 769.536811,940.146468 770.649300,937.886644 772.348095,935.703670 773.014878,934.185259 774.803150,931.898523 776.478876,931.486655 778.951288,931.733322 781.828735,932.386922 784.705492,931.938360 787.409996,929.514942 789.139648,926.840882 789.613412,924.272501 789.121280,921.497655 787.985434,918.470111 787.523156,915.360078 789.164361,914.081197 790.676589,912.094924 793.183153,910.848383 795.371166,908.835200 797.696126,907.729492 800.868296,906.200384 802.655946,904.982475 804.289326,904.772702"/>
    <poly id="1025897626" type="forest" color="140,196,107" fill="1" layer="-4.00" shape="801.940867,891.907121 801.821562,893.793390 802.638274,894.773994 804.667734,894.926979 806.754465,893.986626 809.364788,892.813894 811.368444,891.052992 813.505812,888.852569 817.290935,885.718146 820.457369,884.044547 822.143606,882.630285 823.704409,880.597556 822.744670,878.375721 821.603009,877.552785 820.531038,877.395069 818.937926,878.616359 816.540734,880.259329 814.949394,881.525082 813.496767,883.742771 811.463345,884.937063 809.823118,886.060032 806.839624,887.626153 804.674922,888.959274 803.511398,890.118930 801.940867,891.907121"/>
    <poly id="1025897627" type="forest" color="140,196,107" fill="1" layer="-4.00" shape="840.656880,886.802944 839.259645,888.060962 838.604343,889.868370 838.929320,891.881681 840.857479,893.107504 843.927274,893.708948 846.857159,894.594294 849.142236,896.284639 850.932026,897.471441 852.341122,898.862665 854.321369,900.130951 855.643091,901.859651 857.250929,902.274372 858.364579,901.127847 859.365620,898.237887 859.798832,895.916061 860.401602,894.055081 860.741022,891.547724 860.476768,888.708136 860.446999,886.694205 859.458865,886.110081 858.340222,885.865149 856.364960,885.988317 854.640661,886.446625 851.787206,886.215093 848.307297,886.164367 844.899271,885.387121 843.151517,885.256305 840.656880,886.802944"/>
    <poly id="1025897628" type="forest" color="140,196,107" fill="1" layer="-4.00" shape="832.698473,873.737644 832.063637,875.878235 832.593112,877.059544 834.134495,878.156032 836.922819,879.102676 839.624528,879.139844 843.972567,879.111469 846.854348,880.054398 849.450437,880.875102 852.221498,881.388245 854.681979,881.334825 856.620956,880.300175 856.489331,879.526089 854.155042,878.951023 851.261771,879.166405 847.783627,879.160142 845.355769,878.766937 843.573603,877.590966 841.500220,876.515656 838.655818,875.426510 835.828675,874.770875 833.908032,873.734019 832.698473,873.737644"/>
    <poly id="1025897629" type="forest" color="140,196,107" fill="1" layer="-4.00" shape="893.598342,843.814225 894.975807,845.496183 897.976603,845.810941 902.069836,842.998316 905.157681,840.615372 908.670026,839.128459 910.077357,836.856936 909.676198,835.280850 907.631238,834.738778 904.715601,835.478282 901.484742,838.067316 899.669396,839.675955 897.505428,841.209404 893.445596,842.328452 893.598342,843.814225"/>
    <poly id="1025897630" type="forest" color="140,196,107" fill="1" layer="-4.00" shape="870.665998,857.062664 870.370118,854.513798 870.425850,852.296066 871.287882,849.712241 872.727938,848.263263 874.940784,846.872589 877.215135,847.026988 879.142524,848.052457 879.032155,851.430220 876.975600,854.395590 876.138111,855.063521 873.726064,855.248601 871.264472,856.359713 870.665998,857.062664"/>
    <poly id="1025897631" type="forest" color="140,196,107" fill="1" layer="-4.00" shape="837.242073,865.418348 837.909244,866.260178 839.940925,866.468755 842.023247,865.417261 844.978442,863.139760 847.327537,861.554385 850.035327,860.477993 852.763262,860.992853 854.767297,861.592200 857.286409,861.926111 859.749019,864.277388 861.154581,865.579688 861.961119,867.751962 859.942072,870.392982 858.320859,871.993908 858.102654,873.928644 859.132828,875.568752 860.550214,875.901990 864.198787,874.220359 866.542130,872.490489 869.143182,871.084358 873.412466,869.077427 875.331313,866.451534 876.292224,863.819241 878.039198,861.578720 882.240258,861.656427 886.177411,859.807459 888.634023,857.304898 893.326160,853.800433 897.724541,851.599119 902.523421,848.424411 905.557619,847.045593 910.400748,844.982455 914.573398,843.079603 916.035372,839.648051 918.287497,837.977502 922.021610,836.092110 927.061623,835.357139 930.827362,835.352010 932.677878,835.712564 937.240192,835.096812 941.054486,835.045225 943.467528,836.151590 946.658454,836.358610 948.513734,835.572257 949.958468,833.154525 948.882005,827.998145 948.141535,825.132972 948.590962,820.684066 948.501172,818.427595 947.438286,815.964915 947.702218,812.825977 947.900344,809.299995 947.501750,806.521417 946.252712,804.266542 943.690122,803.021394 941.845346,802.805339 939.607252,803.562394 936.326373,804.895341 932.326564,806.256900 927.450430,808.577393 925.323054,809.764244 921.485721,812.856128 917.286059,814.080921 912.647852,815.323170 906.897072,818.825215 903.668746,820.211758 899.270337,822.413066 896.126738,824.842765 894.024923,825.405150 889.835010,826.874508 886.668521,828.548064 884.892330,830.054950 881.060786,833.291367 877.855040,835.244822 874.651509,837.253858 872.346642,839.950782 868.886401,841.480178 865.873004,843.381451 862.119455,846.225115 859.686956,848.247999 856.337884,850.218307 853.734611,851.568866 852.370109,853.649436 850.216888,855.271543 847.440751,857.163382 843.723935,859.482336 840.020732,862.324013 838.304626,864.073456 837.242073,865.418348"/>