<?xml version="1.0" encoding="UTF-8"?>

<!-- generated on 2023-05-18 03:44:28.964922 by randomTrips.py v1_17_0+0293-f7f0a5c6e6a
<configuration>
    <net-file value="map.net.xml"/>
    <output-trip-file value="trailer_trips.xml"/>
    <route-file value="trailer_routes.rou.xml"/>
    <trip-attributes value="color=&quot;223,179,180&quot; accel=&quot;0.5&quot;"/>
    <vehicle-class value="trailer"/>
    <period value="150.0"/>
</configuration>
-->

<!-- generated on 2023-05-18 03:44:28 by Eclipse SUMO duarouter Version v1_17_0+0293-f7f0a5c6e6a
<configuration xmlns:xsi="http://www.w3.org/2001/XMLSchema-instance" xsi:noNamespaceSchemaLocation="http://sumo.dlr.de/xsd/duarouterConfiguration.xsd">

    <input>
        <net-file value="map.net.xml"/>
        <route-files value="trailer_trips.xml"/>
    </input>

    <output>
        <output-file value="trailer_routes.rou.xml"/>
        <alternatives-output value="NUL"/>
    </output>

    <time>
        <begin value="0"/>
        <end value="3600.0"/>
    </time>

    <report>
        <no-warnings value="true"/>
        <ignore-errors value="true"/>
        <no-step-log value="true"/>
    </report>

</configuration>
-->

<routes xmlns:xsi="http://www.w3.org/2001/XMLSchema-instance" xsi:noNamespaceSchemaLocation="http://sumo.dlr.de/xsd/routes_file.xsd">
    <vType id="trailer" vClass="trailer" color="223,179,180" accel="0.5"/>
    <vehicle id="trailer0" type="trailer" depart="0.00">
        <route edges="352399687 -352399687 -641192465#2 -641192465#1 -641192465#0 -352399688 -352400766 -352400767#2 -352400767#1 -352400767#0 -641192464 -641192463 -641192462 -158551372 -641192461 -641192460#2 -641192460#1 -641192460#0 -354412134 -47932112 -477127997 -23535392 -57379041#2 -57379041#1 -57379041#0 -161713723#2 -161713723#1 -161713723#0 -1067331069#1 -1067331069#0 -146124178#1 -146124178#0 -161713722 24161922#0 24161922#1 24161922#2 24161922#3 24161922#4 4774025 351962800#0 351962800#1 351963440#0 351963440#1 -161701601#2 -161701601#1 -161701601#0 33651523#0 33651523#1 33651523#2 370079979#0 370079979#1 427527975#0 427527975#1 427527975#2 427527975#3 427527975#4 427527975#5 427527975#6 427527975#7 4774350#0 4774350#1 4774350#2 4774350#3 160911208#0 160911208#1 160911208#2 160911208#3 160911208#4 160911208#5 160911208#6 160911208#7 626821222#0 626821222#1 626821222#2 248526624#0 248526624#1 248526624#2 438514523#0 438514523#1 -165256482 33868769#0 33868769#1 33868769#2 33868769#3 33868769#4 33868769#5 60269513#0 60269513#1 36152711#0 36152711#1 36152711#2 36152711#3 158031379#0 158031379#1 158031379#2 -158031379#2 -158031379#1"/>
    </vehicle>
    <vehicle id="trailer1" type="trailer" depart="150.00">
        <route edges="139932906 152451718 160089159 152451713#0 152451713#1 152451714#0 152451714#1 24161955#0 24161955#1 641183205#0 641183205#1 641183205#2 641183205#3 641183198#0 641183198#1 641183198#2 641183198#3 335015020#0 335015020#1 335015020#2 161701604#0 161701604#1 161701604#2 335015022#0 335015022#1 23535373#0 23535373#1 23535373#2 23535373#3 161713722 24567417#0 24567417#1 24567417#2 641236157#0 641236157#1 641236159#0 641236159#1 641809049 965353309 641236160#0 641236160#1 641236160#2 -448679269 -448679271#2 -448679271#1 -448679271#0 -965353311"/>
    </vehicle>
    <vehicle id="trailer2" type="trailer" depart="300.00">
        <route edges="41461196#3 57379044#0 57379044#1 57379044#2 975422075#0 975422075#1 975422077 351959637#0 351959637#1 351959638#0 351959638#1 641805410#0 641805410#1 641805409#0 641805409#1 641805411 351959954 335015015 351960537#0 351960537#1 -641236160#2 -641236160#1 -641236160#0 -965353309 -641809049 -641236159#1 -641236159#0 -641236157#1 -641236157#0 -24567417#2 -24567417#1 -24567417#0 -161713722 24161922#0 24161922#1 24161922#2 24161922#3 24161922#4 4774025 351962800#0 351962800#1 351963440#0 351963440#1 161701602#0 161701602#1 161742887#0 161742887#1 661605370#0 661605370#1 4774026#0 4774026#1 4774026#2 4774026#3 4774026#4 85673792#0 85673792#1 85673792#2 965387585#0 965387585#1 85673794#0 85673794#1 85673794#2 641182017#0 641182017#1 641182017#2 161742866#0 161742866#1 161742866#2 34399513 161742872#0 161742872#1 183566078#0 183566078#1 641319861#0 641319861#1 517016342 370079980 641319864 283471474#0 283471474#1 700427758 1062676769 427528493#0 427528493#1 391341941#0"/>
    </vehicle>
    <vehicle id="trailer3" type="trailer" depart="450.00">
        <route edges="641491652#0 641491652#1 23541102#0 23541102#1 1062676770 160806513#0 160806513#1 160806513#2 -4774391 85673789 172382929#0 172382929#1 184213140#0 184213140#1 184213140#2 184213140#3 356588841#0 356588841#1 356588841#2 356588841#3 356588841#4 356588841#5 641708541 641708542 642011845#0 642011845#1 642011845#2 642011845#3 23535373#0 23535373#1 23535373#2 23535373#3 161713722 24567417#0 24567417#1 24567417#2 -24567417#2"/>
    </vehicle>
    <vehicle id="trailer4" type="trailer" depart="600.00">
        <route edges="183555573#0 183555573#1 183555573#2 327513182 161742866#1 161742866#2 23541090#0 23541090#1 23541090#2 23541090#3 641558194#0 641558194#1 641558194#2 253498831 179642055 253498832#0 253498832#1 641498688#0 641498688#1 179642056 152451714#0 152451714#1 4774489 160089162 150812648#0 150812648#1 150812648#2 152451722 139932905#0 139932905#1 40955979#0 40955979#1 161866003#0 161866003#1 640145099 640145101 4774492#0 4774492#1 4774492#2 1066103470#0 1066103470#1 41388726#0 41388726#1 110461545#0 110461545#1 991877915 183563027#0 183563027#1 183563027#2 183563027#3 991877914#0 991877914#1 991877914#2 -4774496#4 -4774496#3 -4774496#2 -4774496#1 -4774496#0 158551373#0 158551373#1 158551373#2 158551373#3 158551373#4 39762982#0 39762982#1 -39762982#1 -39762982#0 -158551373#4"/>
    </vehicle>
    <vehicle id="trailer5" type="trailer" depart="750.00">
        <route edges="-661300188 -260725242 60270099#0 60270099#1 60270099#2 47932115#0 47932115#1 239290899#0 239290899#1 239290899#2 34399494 642004544 223733942#0 223733942#1 24595394#0 24595394#1 223733940 641818237#0 641818237#1 641818237#2 641818237#3 172382932 138981707 172382934#0 172382934#1 176311417#0 176311417#1 176311417#2 176307387#0 176307387#1 261818982#0 261818982#1 24567348#0 24567348#1 24567348#2 24567355#0"/>
    </vehicle>
    <vehicle id="trailer6" type="trailer" depart="900.00">
        <route edges="-158031379#2 -158031379#1 -158031379#0 -36152711#3 -36152711#2 -36152711#1 -36152711#0 661298819#0 661298819#1 260725237#0 260725237#1 47932115#0 47932115#1 239290899#0 239290899#1 239290899#2 34399494 642004544 223733942#0 223733942#1 356588841#0 356588841#1 356588841#2 356588841#3 356588841#4 356588841#5 641708541 641708542 642011845#0 642011845#1 642011845#2 642011845#3 23535373#0 23535373#1 23535373#2 23535373#3 161713722 24567417#0 24567417#1 24567417#2 641236157#0 641236157#1 641236159#0 641236159#1 -641236159#1"/>
    </vehicle>
    <vehicle id="trailer7" type="trailer" depart="1050.00">
        <route edges="353982926 253498836 183566077#0 183566077#1 183566077#2 183566077#3 183566077#4 641558194#0 641558194#1 641558194#2 253498831"/>
    </vehicle>
    <vehicle id="trailer8" type="trailer" depart="1200.00">
        <route edges="-696378835#2 -696378835#1 -696378835#0 -696378836 -184213142#1 -184213142#0 184213142#0 184213142#1 696378836 696378835#0 696378835#1 696378835#2 34399494 642004544 223733942#0 223733942#1 356588841#0 356588841#1 356588841#2 356588841#3 356588841#4 356588841#5 641708541 641708542 642011845#0 642011845#1 642011845#2 642011845#3 23535373#0 23535373#1 23535373#2 23535373#3 161713722 146124178#0 146124178#1 1067331069#0 1067331069#1 161713723#0 161713723#1 161713723#2 57379041#0 57379041#1 57379041#2 -160931059 -183730050 32608459#0 32608459#1 702417746#0 702417746#1 702417747 702417748 702417749 702417750 882533672#0 882533672#1 32847601#0 32847601#1 32847601#2 32847601#3"/>
    </vehicle>
    <vehicle id="trailer9" type="trailer" depart="1350.00">
        <route edges="47932115#0 47932115#1 239290899#0 239290899#1 239290899#2 34399494 642004544 223733942#0 223733942#1 356588841#0 356588841#1 356588841#2 356588841#3 356588841#4 356588841#5 641708541 641708542 642011845#0 642011845#1 642011845#2 642011845#3 23535373#0 23535373#1 23535373#2 23535373#3 161713722 146124178#0 146124178#1 1067331069#0 1067331069#1 161713723#0 161713723#1 161713723#2 57379041#0 57379041#1 57379041#2 -160931059 -183730050 32608459#0 32608459#1 702417746#0 702417746#1 702417747 702417748 702417749 702417750 882533672#0 882533672#1 975583532#0 975583532#1 32608460#0 32608460#1 32608460#2 32608460#3 -1154607033#3 -1154607033#2 -1154607033#1"/>
    </vehicle>
    <vehicle id="trailer10" type="trailer" depart="1500.00">
        <route edges="4774858#1 4774858#2 4774858#3 4774858#4 4774858#5 -161713723#2 -161713723#1 -161713723#0 -1067331069#1 -1067331069#0 -146124178#1 -146124178#0 -161713722 24161922#0 24161922#1 24161922#2 24161922#3 24161922#4 4774025 351962800#0 351962800#1 351963440#0 351963440#1 161701602#0 161701602#1 161742887#0 161742887#1 661605370#0 661605370#1 770848352#0 770848352#1 1065336489 351963617#0 351963617#1 351963617#2 351963617#3 351963617#4 161898366#0 161898366#1 161898366#2 152451721 160089159 152451713#0 152451713#1 -179642056 57379050#0 57379050#1 57379050#2 85460497 39763728#0 39763728#1 39763728#2 39763728#3 39763728#4"/>
    </vehicle>
    <vehicle id="trailer11" type="trailer" depart="1650.00">
        <route edges="161250666#2 58261575#0 58261575#1 58261575#2 353623981#0 353623981#1 353623981#2 85460497 200422113#0 200422113#1 200422113#2 200422113#3 -253498831 23535109#0 23535109#1 253498829#0 253498829#1 253498829#2 353982926 253498833#0 253498833#1 253498833#2 976312598 251655324#0 251655324#1 251655324#2 251655324#3 251655324#4 248482597#0 248482597#1 42365366#0 42365366#1 42365366#2 -42365366#2"/>
    </vehicle>
    <vehicle id="trailer12" type="trailer" depart="1800.00">
        <route edges="85335691#0 85335691#1 379871903 483098101 4774352#0 4774352#1 4774352#2 4774352#3 160806514 4774388#0 4774388#1 4774388#2 4774388#3 4774388#4 4774388#5 -85673789 4774391 238371932#0 238371932#1 238371932#2 183555572#0 183555572#1 183555572#2 183555572#3 183555572#4 183555572#5 -965387585#1 -965387585#0 -85673792#2 -85673792#1 -85673792#0 335015020#0 335015020#1 335015020#2 161701601#0 161701601#1 161701601#2"/>
    </vehicle>
    <vehicle id="trailer13" type="trailer" depart="1950.00">
        <route edges="-24567417#2 -24567417#1 -24567417#0 -161713722 24161922#0 24161922#1 24161922#2 24161922#3 24161922#4 4774025 351962800#0 351962800#1 351963440#0 351963440#1 161701602#0 161701602#1 161742887#0 161742887#1 661605370#0 661605370#1 4774026#0 4774026#1 4774026#2 4774026#3 4774026#4 85673792#0 85673792#1 85673792#2 965387585#0 965387585#1 85673794#0 85673794#1 85673794#2 641182017#0 641182017#1 641182017#2 161742866#0 161742866#1 161742866#2 23541090#0 23541090#1 23541090#2 23541090#3 495589803 253498829#0 253498829#1 253498829#2 353982926 253498833#0 253498833#1 253498833#2 976312598 251655324#0 251655324#1 251655324#2 251655324#3 251655324#4 248482597#0 248482597#1 399865721#0 399865721#1 399865721#2 253498835#0 253498835#1 253498835#2 253498835#3 253498835#4 253498835#5 42365338#0 42365338#1 42365338#2 42365338#3 -42365338#3 -42365338#2 -42365338#1 -42365338#0 -253498835#5 -253498835#4 -253498835#3"/>
    </vehicle>
    <vehicle id="trailer14" type="trailer" depart="2100.00">
        <route edges="58261605 -58261605 161866002 146120377 640145102#0 640145102#1 161866001#0 161866001#1 -152451722 150812653#0 150812653#1 152451723#0 152451723#1 152451718 160089159 152451713#0 152451713#1 152451714#0 152451714#1 24161955#0 24161955#1 641183205#0 641183205#1 641183205#2 641183205#3 641183198#0 641183198#1 641183198#2 641183198#3 335015020#0 335015020#1 335015020#2 33651523#0 33651523#1 33651523#2 370079979#0 370079979#1 427527975#0 427527975#1 427527975#2 427527975#3 427527975#4 427527975#5 427527975#6 427527975#7 4774350#0 4774350#1 4774350#2 4774350#3 160911208#0 160911208#1 160911208#2 160911208#3 160911208#4 160911208#5 160911208#6 160911208#7 626821222#0 626821222#1 626821222#2 248526624#0 248526624#1 248526624#2 438514523#0 438514523#1 -165256482 33868769#0 33868769#1"/>
    </vehicle>
    <vehicle id="trailer15" type="trailer" depart="2250.00">
        <route edges="4774858#3 4774858#4 4774858#5 -161713723#2 -161713723#1 -161713723#0 -1067331069#1 -1067331069#0 -146124178#1 -146124178#0 24567417#0 24567417#1 24567417#2 641236157#0 641236157#1 641236159#0 641236159#1 641809049 965353309 641236160#0 641236160#1 641236160#2 -448679269 -448679271#2 -448679271#1 -448679271#0 -965353311 -184213138#4 -184213138#3 -184213138#2 -184213138#1 -184213138#0 -184213137#1 41415490#0 41415490#1 41415491"/>
    </vehicle>
    <vehicle id="trailer16" type="trailer" depart="2400.00">
        <route edges="249266523#0 249266523#1 1071777498 327511728 641538362#0 641538362#1 73173002 641558192#0 641558192#1 641558192#2 183566077#0 183566077#1 183566077#2 183566077#3 183566077#4 641558194#0 641558194#1 641558194#2 253498831 179642055 23541088#0 23541088#1 684421716 39771938#0 39771938#1 39771938#2 39771938#3 641183198#0 641183198#1 641183198#2 641183198#3 335015020#0 335015020#1 335015020#2 161701604#0 161701604#1 161701604#2 335015022#0 335015022#1 23535373#0 23535373#1 23535373#2 23535373#3 24161923#0 24161923#1 24161923#2 24161923#3 24567664#0 24567664#1 24567664#2 24567664#3 234541347#0 234541347#1 234541347#2 234541347#3 87125871#0 87125871#1"/>
    </vehicle>
    <vehicle id="trailer17" type="trailer" depart="2550.00">
        <route edges="169049971#0 169049971#1 169049971#2 641244967 641244966 531438006#0 531438006#1 239783868 261818985#0 261818985#1 641812329#0 641812329#1 641812330 641813017 250220609 24567664#0 24567664#1 24567664#2 24567664#3 234541347#0 234541347#1 234541347#2 234541347#3 172382927#0 172382927#1 172382930#0 172382930#1 172382930#2 641708541 32597490#0 32597490#1 32597490#2 427527975#0 427527975#1 427527975#2 238494490#0 238494490#1 641816016#0 641816016#1 183555573#0 183555573#1 183555573#2 327513182 161742866#1 161742866#2 23541090#0 23541090#1 23541090#2 23541090#3 495589803 253498829#0 253498829#1 253498829#2 353982926 253498833#0 253498833#1 253498833#2 976312598 251655324#0 251655324#1 251655324#2 251655324#3 251655324#4 248482597#0 248482597#1 399865721#0 399865721#1 399865721#2 253498835#0 253498835#1 253498835#2 253498835#3 253498835#4 253498835#5"/>
    </vehicle>
    <vehicle id="trailer18" type="trailer" depart="2700.00">
        <route edges="57379037#0 57379037#1 -57379037#1 -57379037#0 24162152#0 24162152#1 661052820#0 661052820#1 248482596#0 248482596#1 248482596#2 665164563 183566077#1 183566077#2 183566077#3 183566077#4 641558194#0 641558194#1 641558194#2 253498831 179642055 23541088#0 23541088#1 684421716 39771938#0 39771938#1 39771938#2 39771938#3 641183198#0 641183198#1 641183198#2 641183198#3 335015020#0 335015020#1 335015020#2 161701604#0 161701604#1 161701604#2 335015022#0 335015022#1 23535373#0 23535373#1 23535373#2 23535373#3 161713722 146124178#0 146124178#1 1067331069#0 1067331069#1 78823640#0 78823640#1 78823640#2 39675336#0 39675336#1 348362922#0 348362922#1"/>
    </vehicle>
    <vehicle id="trailer19" type="trailer" depart="2850.00">
        <route edges="640145102#0 640145102#1 161866001#0 161866001#1 139932905#0 139932905#1 40955979#0 40955979#1 161866003#0 161866003#1 640145099 640145101 4774492#0 4774492#1 4774492#2 399701065#0 399701065#1 399701065#2 -73170649#1 -73170649#0 -477127997 -23535392 -160931059 -183730050 32608459#0 32608459#1"/>
    </vehicle>
    <vehicle id="trailer20" type="trailer" depart="3000.00">
        <route edges="39771938#2 39771938#3 641183198#0 641183198#1 641183198#2 641183198#3 -4774026#4 -4774026#3 -4774026#2 -4774026#1 -4774026#0 770848352#0 770848352#1 1065336489 351963617#0 351963617#1 351963617#2 351963617#3 351963617#4 150076897#0 150076897#1 150076897#2 139932906 161898370#0 161898370#1 150812652 152473761 351966368#0 351966368#1 -161898369#3 -161898369#2 -161898369#1"/>
    </vehicle>
    <vehicle id="trailer21" type="trailer" depart="3150.00">
        <route edges="-860642307#2 -860642307#1 -860642307#0 641337889 1172196790#0 1172196790#1 158551380 1172196795 641335725 73174158 165256482 -642001275#1 -642001275#0 -661300188 -260725242 60270099#0 60270099#1 60270099#2 47932115#0 47932115#1 239290899#0 239290899#1 239290899#2 34399494 642004544 223733942#0 223733942#1 356588841#0 356588841#1 356588841#2 356588841#3 356588841#4 356588841#5 641708541 641708542 642011845#0 642011845#1 642011845#2 642011845#3 4774487 4774025 351962800#0 351962800#1 351963440#0 351963440#1 161701602#0 161701602#1 161742887#0 161742887#1 661605370#0 661605370#1 770848352#0 770848352#1 1065336489 351963617#0 351963617#1 351963617#2 351963617#3 351963617#4 161898366#0 161898366#1 161898366#2 152451721 160089159 152451713#0"/>
    </vehicle>
    <vehicle id="trailer22" type="trailer" depart="3300.00">
        <route edges="-186048369#0 164898122#0 164898122#1 -164898120 606120690#0 606120690#1 351963617#4 161898366#0 161898366#1 161898366#2 152451721 160089159 152451713#0 152451713#1 152451714#0 152451714#1 24161955#0 24161955#1 641183205#0 641183205#1 641183205#2 641183205#3 641183198#0 641183198#1 641183198#2 641183198#3 335015020#0 335015020#1 335015020#2 33651523#0 33651523#1 33651523#2 370079979#0 370079979#1 427527975#0 427527975#1 427527975#2 427527975#3 427527975#4 427527975#5 427527975#6 427527975#7 4774350#0 4774350#1 4774350#2 4774350#3 160911208#0 160911208#1 160911208#2 160911208#3 160911208#4 160911208#5 160911208#6 160911208#7 626821222#0 626821222#1 626821222#2 -1015481155#2 -1015481155#1 -1015481155#0 1015481156#0"/>
    </vehicle>
    <vehicle id="trailer23" type="trailer" depart="3450.00">
        <route edges="-253498835#0 398392189#0 398392189#1 398392189#2 249266523#0 249266523#1 1071777498 327511728 641538362#0 641538362#1 73173002 641558192#0 641558192#1 641558192#2 183566077#0 183566077#1 183566077#2 183566077#3 183566077#4 641558194#0 641558194#1 641558194#2 253498831 179642055 253498832#0 253498832#1 641498688#0 641498688#1 179642056 152451714#0 152451714#1 4774489 160089162 150812648#0 150812648#1 150812648#2 152451722 -152451722 150812653#0"/>
    </vehicle>
</routes>
