<?xml version="1.0" encoding="UTF-8"?>

<!-- generated on 2023-05-18 03:44:23.070468 by randomTrips.py v1_17_0+0293-f7f0a5c6e6a
<configuration>
    <net-file value="map.net.xml"/>
    <output-trip-file value="truck_trips.xml"/>
    <route-file value="truck_routes.rou.xml"/>
    <trip-attributes value="color=&quot;179,223,183&quot;"/>
    <vehicle-class value="truck"/>
    <period value="15.0"/>
</configuration>
-->

<routes xmlns:xsi="http://www.w3.org/2001/XMLSchema-instance" xsi:noNamespaceSchemaLocation="http://sumo.dlr.de/xsd/routes_file.xsd">
    <vType id="truck" vClass="truck" color="179,223,183"/>
    <trip id="0" depart="0.00" from="352399687" to="-158031379#1" type="truck"/>
    <trip id="1" depart="15.00" from="139932906" to="-965353311" type="truck"/>
    <trip id="2" depart="30.00" from="41461196#3" to="391341941#0" type="truck"/>
    <trip id="3" depart="45.00" from="641491652#0" to="-24567417#2" type="truck"/>
    <trip id="4" depart="60.00" from="183555573#0" to="-158551373#4" type="truck"/>
    <trip id="5" depart="75.00" from="-661300188" to="24567355#0" type="truck"/>
    <trip id="6" depart="90.00" from="-158031379#2" to="-641236159#1" type="truck"/>
    <trip id="7" depart="105.00" from="353982926" to="253498831" type="truck"/>
    <trip id="8" depart="120.00" from="-696378835#2" to="32847601#3" type="truck"/>
    <trip id="9" depart="135.00" from="47932115#0" to="-1154607033#1" type="truck"/>
    <trip id="10" depart="150.00" from="4774858#1" to="39763728#4" type="truck"/>
    <trip id="11" depart="165.00" from="161250666#2" to="-42365366#2" type="truck"/>
    <trip id="12" depart="180.00" from="85335691#0" to="161701601#2" type="truck"/>
    <trip id="13" depart="195.00" from="-24567417#2" to="-253498835#3" type="truck"/>
    <trip id="14" depart="210.00" from="58261605" to="33868769#1" type="truck"/>
    <trip id="15" depart="225.00" from="4774858#3" to="41415491" type="truck"/>
    <trip id="16" depart="240.00" from="249266523#0" to="87125871#1" type="truck"/>
    <trip id="17" depart="255.00" from="169049971#0" to="253498835#5" type="truck"/>
    <trip id="18" depart="270.00" from="57379037#0" to="348362922#1" type="truck"/>
    <trip id="19" depart="285.00" from="640145102#0" to="32608459#1" type="truck"/>
    <trip id="20" depart="300.00" from="39771938#2" to="-161898369#1" type="truck"/>
    <trip id="21" depart="315.00" from="-860642307#2" to="152451713#0" type="truck"/>
    <trip id="22" depart="330.00" from="-186048369#0" to="1015481156#0" type="truck"/>
    <trip id="23" depart="345.00" from="-253498835#0" to="150812653#0" type="truck"/>
    <trip id="24" depart="360.00" from="351963617#2" to="164898117#3" type="truck"/>
    <trip id="25" depart="375.00" from="164898117#2" to="-641729623#1" type="truck"/>
    <trip id="26" depart="390.00" from="1172196795" to="684421682#1" type="truck"/>
    <trip id="27" depart="405.00" from="353623981#0" to="34399311#1" type="truck"/>
    <trip id="28" depart="420.00" from="-4774028#1" to="41415490#1" type="truck"/>
    <trip id="29" depart="435.00" from="-448679271#0" to="171196091#3" type="truck"/>
    <trip id="30" depart="450.00" from="965387585#0" to="352401430#0" type="truck"/>
    <trip id="31" depart="465.00" from="260725241#1" to="39762964#0" type="truck"/>
    <trip id="32" depart="480.00" from="58261592#1" to="462701393#1" type="truck"/>
    <trip id="33" depart="495.00" from="-965353309" to="-158551376#1" type="truck"/>
    <trip id="34" depart="510.00" from="158551376#2" to="139932905#0" type="truck"/>
    <trip id="35" depart="525.00" from="-641337889" to="702417748" type="truck"/>
    <trip id="36" depart="540.00" from="641236157#0" to="158551394#1" type="truck"/>
    <trip id="37" depart="555.00" from="36152711#0" to="172635996#3" type="truck"/>
    <trip id="38" depart="570.00" from="641805411" to="234541347#2" type="truck"/>
    <trip id="39" depart="585.00" from="1171308448#1" to="115084776#1" type="truck"/>
    <trip id="40" depart="600.00" from="261818985#0" to="127998292#0" type="truck"/>
    <trip id="41" depart="615.00" from="327515223#0" to="641498688#1" type="truck"/>
    <trip id="42" depart="630.00" from="172635996#1" to="-860642307#0" type="truck"/>
    <trip id="43" depart="645.00" from="991877914#2" to="24567460#1" type="truck"/>
    <trip id="44" depart="660.00" from="-24567355#2" to="-161898369#3" type="truck"/>
    <trip id="45" depart="675.00" from="-308889424#5" to="351960537#0" type="truck"/>
    <trip id="46" depart="690.00" from="4774352#3" to="183563027#2" type="truck"/>
    <trip id="47" depart="705.00" from="-174612416#3" to="171820474#1" type="truck"/>
    <trip id="48" depart="720.00" from="979366830" to="248482596#0" type="truck"/>
    <trip id="49" depart="735.00" from="87125869#1" to="626821222#2" type="truck"/>
    <trip id="50" depart="750.00" from="-1172196795" to="399865721#2" type="truck"/>
    <trip id="51" depart="765.00" from="39762656#0" to="251655324#0" type="truck"/>
    <trip id="52" depart="780.00" from="1172196795" to="352401432#0" type="truck"/>
    <trip id="53" depart="795.00" from="-32608460#0" to="184213137#0" type="truck"/>
    <trip id="54" depart="810.00" from="200422113#1" to="73174158" type="truck"/>
    <trip id="55" depart="825.00" from="641192465#2" to="127998292#1" type="truck"/>
    <trip id="56" depart="840.00" from="24161955#0" to="-509416212#0" type="truck"/>
    <trip id="57" depart="855.00" from="641805409#1" to="641183205#3" type="truck"/>
    <trip id="58" depart="870.00" from="152451718" to="352400767#1" type="truck"/>
    <trip id="59" depart="885.00" from="340531677" to="-42365364#3" type="truck"/>
    <trip id="60" depart="900.00" from="42381016#0" to="251655324#4" type="truck"/>
    <trip id="61" depart="915.00" from="477127996#2" to="248482596#2" type="truck"/>
    <trip id="62" depart="930.00" from="-1015481155#0" to="160911208#1" type="truck"/>
    <trip id="63" depart="945.00" from="-152032058#0" to="642011845#3" type="truck"/>
    <trip id="64" depart="960.00" from="641236160#0" to="57379041#0" type="truck"/>
    <trip id="65" depart="975.00" from="158031379#0" to="-174612416#1" type="truck"/>
    <trip id="66" depart="990.00" from="641236159#1" to="702417751#3" type="truck"/>
    <trip id="67" depart="1005.00" from="-23542198#1" to="238494490#1" type="truck"/>
    <trip id="68" depart="1020.00" from="-183694756#1" to="42365366#0" type="truck"/>
    <trip id="69" depart="1035.00" from="427527975#2" to="-39763496#0" type="truck"/>
    <trip id="70" depart="1050.00" from="23541090#1" to="253498835#1" type="truck"/>
    <trip id="71" depart="1065.00" from="1171308448#1" to="641192460#2" type="truck"/>
    <trip id="72" depart="1080.00" from="183555573#2" to="-642001275#1" type="truck"/>
    <trip id="73" depart="1095.00" from="251655324#0" to="41415491" type="truck"/>
    <trip id="74" depart="1110.00" from="-641192462" to="158551376#6" type="truck"/>
    <trip id="75" depart="1125.00" from="976312598" to="356588841#4" type="truck"/>
    <trip id="76" depart="1140.00" from="184213138#0" to="24567736#0" type="truck"/>
    <trip id="77" depart="1155.00" from="-352400767#2" to="-975422075#0" type="truck"/>
    <trip id="78" depart="1170.00" from="161250663#0" to="32847601#2" type="truck"/>
    <trip id="79" depart="1185.00" from="-965387585#0" to="-860642307#2" type="truck"/>
    <trip id="80" depart="1200.00" from="-183730050" to="351963617#0" type="truck"/>
    <trip id="81" depart="1215.00" from="-965353309" to="641581110#1" type="truck"/>
    <trip id="82" depart="1230.00" from="626821222#2" to="-184213142#0" type="truck"/>
    <trip id="83" depart="1245.00" from="1015481155#1" to="379871903" type="truck"/>
    <trip id="84" depart="1260.00" from="-641581110#2" to="-39764008#2" type="truck"/>
    <trip id="85" depart="1275.00" from="680608094#1" to="308889424#6" type="truck"/>
    <trip id="86" depart="1290.00" from="23541073#1" to="4774028#0" type="truck"/>
    <trip id="87" depart="1305.00" from="4774858#4" to="-641192460#0" type="truck"/>
    <trip id="88" depart="1320.00" from="-252805882#0" to="183694683#1" type="truck"/>
    <trip id="89" depart="1335.00" from="183555573#2" to="23541056#4" type="truck"/>
    <trip id="90" depart="1350.00" from="41415490#1" to="38960048#1" type="truck"/>
    <trip id="91" depart="1365.00" from="965353310#1" to="-260725242" type="truck"/>
    <trip id="92" depart="1380.00" from="174526389#1" to="161701604#1" type="truck"/>
    <trip id="93" depart="1395.00" from="640145102#0" to="1154607033#1" type="truck"/>
    <trip id="94" depart="1410.00" from="-57379037#1" to="187670824#0" type="truck"/>
    <trip id="95" depart="1425.00" from="183555573#0" to="150812653#0" type="truck"/>
    <trip id="96" depart="1440.00" from="1084917620" to="641819776#0" type="truck"/>
    <trip id="97" depart="1455.00" from="184213140#3" to="640145099" type="truck"/>
    <trip id="98" depart="1470.00" from="253498833#2" to="-165256482" type="truck"/>
    <trip id="99" depart="1485.00" from="992477821#0" to="57379048#1" type="truck"/>
    <trip id="100" depart="1500.00" from="862107528#0" to="642001275#1" type="truck"/>
    <trip id="101" depart="1515.00" from="58379204#0" to="-4774496#0" type="truck"/>
    <trip id="102" depart="1530.00" from="236375284#1" to="-696378835#1" type="truck"/>
    <trip id="103" depart="1545.00" from="173804791#1" to="-174612416#2" type="truck"/>
    <trip id="104" depart="1560.00" from="169049971#1" to="965357946" type="truck"/>
    <trip id="105" depart="1575.00" from="1171308448#1" to="4774026#4" type="truck"/>
    <trip id="106" depart="1590.00" from="200422113#3" to="183563027#3" type="truck"/>
    <trip id="107" depart="1605.00" from="85335691#0" to="976312598" type="truck"/>
    <trip id="108" depart="1620.00" from="260725237#1" to="399701065#2" type="truck"/>
    <trip id="109" depart="1635.00" from="-42365338#0" to="152451725#1" type="truck"/>
    <trip id="110" depart="1650.00" from="862107527" to="32608460#2" type="truck"/>
    <trip id="111" depart="1665.00" from="251979085#0" to="41758686#7" type="truck"/>
    <trip id="112" depart="1680.00" from="-172635996#0" to="327515223#2" type="truck"/>
    <trip id="113" depart="1695.00" from="24162174#0" to="58379207#1" type="truck"/>
    <trip id="114" depart="1710.00" from="-42365364#0" to="85673792#1" type="truck"/>
    <trip id="115" depart="1725.00" from="-186048369#1" to="-58261589#1" type="truck"/>
    <trip id="116" depart="1740.00" from="32847602#3" to="38960049#1" type="truck"/>
    <trip id="117" depart="1755.00" from="1000532550#0" to="-36152711#0" type="truck"/>
    <trip id="118" depart="1770.00" from="641319864" to="115084776#1" type="truck"/>
    <trip id="119" depart="1785.00" from="32847602#2" to="348362922#3" type="truck"/>
    <trip id="120" depart="1800.00" from="183555572#1" to="327515223#1" type="truck"/>
    <trip id="121" depart="1815.00" from="24595226#1" to="665164563" type="truck"/>
    <trip id="122" depart="1830.00" from="-641192465#2" to="39903201#3" type="truck"/>
    <trip id="123" depart="1845.00" from="1015481155#2" to="172635996#3" type="truck"/>
    <trip id="124" depart="1860.00" from="379871903" to="155817423#2" type="truck"/>
    <trip id="125" depart="1875.00" from="158551376#3" to="42112264#3" type="truck"/>
    <trip id="126" depart="1890.00" from="-184213137#1" to="234541347#1" type="truck"/>
    <trip id="127" depart="1905.00" from="991877915" to="979366830" type="truck"/>
    <trip id="128" depart="1920.00" from="-184213138#0" to="-696378835#0" type="truck"/>
    <trip id="129" depart="1935.00" from="1171308448#1" to="661505041" type="truck"/>
    <trip id="130" depart="1950.00" from="641241927#0" to="641236159#1" type="truck"/>
    <trip id="131" depart="1965.00" from="164898117#1" to="-448679271#1" type="truck"/>
    <trip id="132" depart="1980.00" from="57379048#0" to="39771938#2" type="truck"/>
    <trip id="133" depart="1995.00" from="34399311#0" to="965357948#1" type="truck"/>
    <trip id="134" depart="2010.00" from="356588841#4" to="-1154607033#3" type="truck"/>
    <trip id="135" depart="2025.00" from="495589803" to="155817423#1" type="truck"/>
    <trip id="136" depart="2040.00" from="36336697#2" to="696378835#1" type="truck"/>
    <trip id="137" depart="2055.00" from="-39763009#1" to="-352400767#2" type="truck"/>
    <trip id="138" depart="2070.00" from="-308889424#1" to="253498836" type="truck"/>
    <trip id="139" depart="2085.00" from="129112121#3" to="33868769#3" type="truck"/>
    <trip id="140" depart="2100.00" from="399701065#0" to="-641335725" type="truck"/>
    <trip id="141" depart="2115.00" from="351963617#0" to="129112121#0" type="truck"/>
    <trip id="142" depart="2130.00" from="238494490#1" to="641581110#1" type="truck"/>
    <trip id="143" depart="2145.00" from="58261595#4" to="-252805882#1" type="truck"/>
    <trip id="144" depart="2160.00" from="183555573#2" to="150812650" type="truck"/>
    <trip id="145" depart="2175.00" from="-1067331069#0" to="438514523#0" type="truck"/>
    <trip id="146" depart="2190.00" from="351966368#0" to="121481097#0" type="truck"/>
    <trip id="147" depart="2205.00" from="41721108#0" to="253498835#4" type="truck"/>
    <trip id="148" depart="2220.00" from="183566077#2" to="-115828660#2" type="truck"/>
    <trip id="149" depart="2235.00" from="-184213138#3" to="641244966" type="truck"/>
    <trip id="150" depart="2250.00" from="641581110#1" to="253498832#0" type="truck"/>
    <trip id="151" depart="2265.00" from="57379048#1" to="327515223#0" type="truck"/>
    <trip id="152" depart="2280.00" from="-41688040#1" to="-39763009#1" type="truck"/>
    <trip id="153" depart="2295.00" from="158031379#1" to="641538362#1" type="truck"/>
    <trip id="154" depart="2310.00" from="4774391" to="626821222#2" type="truck"/>
    <trip id="155" depart="2325.00" from="641558192#1" to="-641809049" type="truck"/>
    <trip id="156" depart="2340.00" from="1084917620" to="-308889424#4" type="truck"/>
    <trip id="157" depart="2355.00" from="477148392#0" to="641244968" type="truck"/>
    <trip id="158" depart="2370.00" from="174612416#4" to="350823236#1" type="truck"/>
    <trip id="159" depart="2385.00" from="-42365338#0" to="661052820#0" type="truck"/>
    <trip id="160" depart="2400.00" from="641183198#0" to="87493737#1" type="truck"/>
    <trip id="161" depart="2415.00" from="483098096#0" to="641241927#0" type="truck"/>
    <trip id="162" depart="2430.00" from="-158031379#0" to="41461196#3" type="truck"/>
    <trip id="163" depart="2445.00" from="160911208#5" to="661052820#1" type="truck"/>
    <trip id="164" depart="2460.00" from="4774496#3" to="641182017#0" type="truck"/>
    <trip id="165" depart="2475.00" from="483098096#0" to="138981707" type="truck"/>
    <trip id="166" depart="2490.00" from="4774350#0" to="-32608460#4" type="truck"/>
    <trip id="167" depart="2505.00" from="641192462" to="625047980" type="truck"/>
    <trip id="168" depart="2520.00" from="-73170649#1" to="483124016#1" type="truck"/>
    <trip id="169" depart="2535.00" from="234541347#1" to="158551373#2" type="truck"/>
    <trip id="170" depart="2550.00" from="4774388#4" to="-975583532#1" type="truck"/>
    <trip id="171" depart="2565.00" from="-155817423#2" to="-641192462" type="truck"/>
    <trip id="172" depart="2580.00" from="160806514" to="641182017#1" type="truck"/>
    <trip id="173" depart="2595.00" from="860642307#1" to="150812653#1" type="truck"/>
    <trip id="174" depart="2610.00" from="352400767#0" to="174526389#2" type="truck"/>
    <trip id="175" depart="2625.00" from="956180503#2" to="251655321" type="truck"/>
    <trip id="176" depart="2640.00" from="696378835#2" to="-352400767#2" type="truck"/>
    <trip id="177" depart="2655.00" from="87125869#0" to="-509416212#0" type="truck"/>
    <trip id="178" depart="2670.00" from="85673794#1" to="129112121#2" type="truck"/>
    <trip id="179" depart="2685.00" from="-308889424#3" to="183730050" type="truck"/>
    <trip id="180" depart="2700.00" from="41415490#0" to="158551394#0" type="truck"/>
    <trip id="181" depart="2715.00" from="33868769#2" to="24567528#1" type="truck"/>
    <trip id="182" depart="2730.00" from="171820471" to="32608459#0" type="truck"/>
    <trip id="183" depart="2745.00" from="1154607033#0" to="398392189#0" type="truck"/>
    <trip id="184" depart="2760.00" from="-1015481155#2" to="642001275#0" type="truck"/>
    <trip id="185" depart="2775.00" from="251655321" to="399865721#0" type="truck"/>
    <trip id="186" depart="2790.00" from="41721108#1" to="379877176#1" type="truck"/>
    <trip id="187" depart="2805.00" from="163392037#0" to="-184213138#4" type="truck"/>
    <trip id="188" depart="2820.00" from="36336697#3" to="161040415#1" type="truck"/>
    <trip id="189" depart="2835.00" from="158551375#1" to="58261599#0" type="truck"/>
    <trip id="190" depart="2850.00" from="399865721#0" to="155817423#3" type="truck"/>
    <trip id="191" depart="2865.00" from="158551372" to="176307390" type="truck"/>
    <trip id="192" depart="2880.00" from="174526389#1" to="152451723#1" type="truck"/>
    <trip id="193" depart="2895.00" from="-36152711#2" to="183555573#2" type="truck"/>
    <trip id="194" depart="2910.00" from="696378836" to="391341941#1" type="truck"/>
    <trip id="195" depart="2925.00" from="641567452#1" to="34399657#1" type="truck"/>
    <trip id="196" depart="2940.00" from="152451723#0" to="253498833#2" type="truck"/>
    <trip id="197" depart="2955.00" from="-1015481155#0" to="152032058#0" type="truck"/>
    <trip id="198" depart="2970.00" from="183566078#0" to="32608460#4" type="truck"/>
    <trip id="199" depart="2985.00" from="356588841#5" to="23541056#0" type="truck"/>
    <trip id="200" depart="3000.00" from="184213140#2" to="-696378835#1" type="truck"/>
    <trip id="201" depart="3015.00" from="23541088#0" to="641558194#0" type="truck"/>
    <trip id="202" depart="3030.00" from="4774388#5" to="-4774858#0" type="truck"/>
    <trip id="203" depart="3045.00" from="-225603639#1" to="24567664#1" type="truck"/>
    <trip id="204" depart="3060.00" from="351963440#0" to="161701601#0" type="truck"/>
    <trip id="205" depart="3075.00" from="509416212#0" to="42112264#2" type="truck"/>
    <trip id="206" depart="3090.00" from="379877176#1" to="-975422075#0" type="truck"/>
    <trip id="207" depart="3105.00" from="-641192460#1" to="-158031379#0" type="truck"/>
    <trip id="208" depart="3120.00" from="1066103470#0" to="23541090#3" type="truck"/>
    <trip id="209" depart="3135.00" from="58379205" to="-184722489#1" type="truck"/>
    <trip id="210" depart="3150.00" from="176311417#1" to="351963440#0" type="truck"/>
    <trip id="211" depart="3165.00" from="-58261599#0" to="39763728#1" type="truck"/>
    <trip id="212" depart="3180.00" from="241545573" to="1084917621" type="truck"/>
    <trip id="213" depart="3195.00" from="36152711#1" to="-110461545#1" type="truck"/>
    <trip id="214" depart="3210.00" from="42112264#1" to="427528493#1" type="truck"/>
    <trip id="215" depart="3225.00" from="-308889424#0" to="183566077#1" type="truck"/>
    <trip id="216" depart="3240.00" from="-4774496#3" to="85335691#0" type="truck"/>
    <trip id="217" depart="3255.00" from="24567664#2" to="-165256482" type="truck"/>
    <trip id="218" depart="3270.00" from="1084102771" to="58261599#0" type="truck"/>
    <trip id="219" depart="3285.00" from="223733942#0" to="4774496#2" type="truck"/>
    <trip id="220" depart="3300.00" from="370079979#0" to="965357948#2" type="truck"/>
    <trip id="221" depart="3315.00" from="33126937#0" to="702417751#8" type="truck"/>
    <trip id="222" depart="3330.00" from="641337889" to="34399325#3" type="truck"/>
    <trip id="223" depart="3345.00" from="399701065#2" to="24567348#2" type="truck"/>
    <trip id="224" depart="3360.00" from="57379041#1" to="253498833#2" type="truck"/>
    <trip id="225" depart="3375.00" from="641538362#0" to="41758686#10" type="truck"/>
    <trip id="226" depart="3390.00" from="23541090#0" to="1172196790#1" type="truck"/>
    <trip id="227" depart="3405.00" from="1071777498" to="352400766" type="truck"/>
    <trip id="228" depart="3420.00" from="427527975#2" to="24595226#1" type="truck"/>
    <trip id="229" depart="3435.00" from="351959104#1" to="150076897#2" type="truck"/>
    <trip id="230" depart="3450.00" from="-184722489#0" to="152032051#1" type="truck"/>
    <trip id="231" depart="3465.00" from="129112121#2" to="160089159" type="truck"/>
    <trip id="232" depart="3480.00" from="251655324#1" to="-41388726#1" type="truck"/>
    <trip id="233" depart="3495.00" from="-975422075#0" to="39763715#0" type="truck"/>
    <trip id="234" depart="3510.00" from="39824967#1" to="-183694756#2" type="truck"/>
    <trip id="235" depart="3525.00" from="175987272#1" to="253498829#0" type="truck"/>
    <trip id="236" depart="3540.00" from="179642055" to="-641581110#1" type="truck"/>
    <trip id="237" depart="3555.00" from="183555572#3" to="641581110#1" type="truck"/>
    <trip id="238" depart="3570.00" from="327513182" to="39763728#0" type="truck"/>
    <trip id="239" depart="3585.00" from="606120690#0" to="427527975#2" type="truck"/>
</routes>
